<?xml version="1.0" encoding="utf-8"?>
<!DOCTYPE population SYSTEM "http://www.matsim.org/files/dtd/population_v6.dtd">

<population>



<!-- ====================================================================== -->

	<person id="Dr0|0|0">
		<attributes>
		</attributes>
		<plan score="-3.59419481583047" selected="yes">
			<activity type="cep" link="58745520022f" x="4374612.853565682" y="5930923.080233507" start_time="08:00:00" end_time="08:00:00" >
			</activity>
			<leg mode="car" dep_time="08:00:00" trav_time="00:20:42">
				<attributes>
					<attribute name="routingMode" class="java.lang.String">car</attribute>
				</attributes>
				<route type="links" start_link="58745520022f" end_link="2842251230005f" trav_time="00:20:42" distance="19064.357930285016" vehicleRefId="Dr0|0|0_car">58745520022f 255422010006f 1580430400029r 1580430400014r 1580430400003r 313499700005f 1580430250008f 8842057660003f 4813458290000f 1309058760000f 8842039240000f 537941390002f 386664560000f 1580430520000f 1580430460000f 7674746230000f 7674746240000f 5799012010000f 5799012030000f 4813458330001f 3719274550003f 4813458400004f 3296645090001f 107733990000f 1520456010013f 2752463260001f 2752463300002f 2752463280001f 2752463310006f 1538055840000f 1538055820003f 2752528150002f 1512208660001f 2752528160002f 2752528210006f 1512208680000f 1512208710003f 1512208690000f 1512208700002f 2752528130001f 1524424330002f 3296645130017f 5792379040004f 6409035660000f 1566149510002f 5498289000000f 5498288930001f 5498289030002f 346210200001f 2543644290004f 2543644290016f 5498289040004f 2392943230001r 1534071920004r 263940740003f 246915700000f 3439614050001r 271361460004r 2392943280017r 2739851770005r 259100470006r 259100470000r 259100480000r 1535544640002r 83679760002r 1320776950064r 5792669390003r 261668590078r 261668590006r 3521718370000r 5792833970004r 1315428280005r 5792833980002r 304823450000r 3521718350010r 5079302200000r 237616270019r 237616270013r 237616270010r 259103240000r 3123649320006r 3123649310000r 1315510320016r 1315510310024f 304818120004f 304818120013f 304818120022f 2842251230005r 2842251230005f</route>
			</leg>
			<activity type="service" link="2842251230005f" x="4379274.367607313" y="5920058.652230436" max_dur="00:03:00" >
				<attributes>
					<attribute name="customerType" class="java.lang.String">B2B</attribute>
					<attribute name="demand" class="java.lang.Integer">2</attribute>
				</attributes>
			</activity>
			<leg mode="car" dep_time="08:23:42" trav_time="00:20:48">
				<attributes>
					<attribute name="routingMode" class="java.lang.String">car</attribute>
				</attributes>
				<route type="links" start_link="2842251230005f" end_link="58745520022f" trav_time="00:20:48" distance="20047.496493993785" vehicleRefId="Dr0|0|0_car">2842251230005f 304818120022r 304818120013r 304818120004r 1315510310024r 1315510320016f 3123649310000f 3123649320006f 259103240000f 237616270010f 237616270013f 237616270019f 5079302200000f 3521718350010f 304823450000f 5792833980002f 1315428280005f 5792833970004f 3521718370000f 261668590006f 261668590078f 5792669390003f 1320776950064f 83679760002f 1535544640002f 259100480000f 259100470000f 259100470006f 2739851770005f 2392943280017f 271361460004f 3439614050001f 246915700000r 263940740003r 1534071920004f 2392943230001f 5498289040004r 2543644290016r 2543644290004r 346210200001r 5063849360001f 5063849370000f 1573209920000f 1573209890000f 1541889470001f 4777829770001f 5498288980000f 5498288960004f 5498288890002f 1512208740003f 3296645140000f 6409035650000f 3296645190001f 2752528120001f 1534071770000f 4557698940000f 1534071800002f 1534071780000f 1580463050006f 2752528140002f 2752528050008f 2752528110000f 1538055740000f 1520455990001f 2752528200004f 2752463270001f 2752463320006f 2752463290002f 2752463250009f 107734010000f 1580430580004f 3296645070003f 6825336350009f 107733890014f 6663974720005f 458499220000f 6663974700002f 1309058740013f 313499700005r 521996190036r 6469658020003f 522771170001f 522771170006f 522771170018f 7460242480002f 7460242470000r 58745510008f 58745520022f</route>
			</leg>
			<activity type="cep" link="58745520022f" x="4374612.853565682" y="5930923.080233507" max_dur="00:00:00" >
			</activity>
		</plan>

	</person>

<!-- ====================================================================== -->

	<person id="Dr0|1|0">
		<attributes>
		</attributes>
		<plan score="-1.1349037063115874" selected="yes">
			<activity type="cep" link="58745520022f" x="4374612.853565682" y="5930923.080233507" start_time="08:00:00" end_time="08:00:00" >
			</activity>
			<leg mode="car" dep_time="08:00:00" trav_time="00:07:36">
				<attributes>
					<attribute name="routingMode" class="java.lang.String">car</attribute>
				</attributes>
				<route type="links" start_link="58745520022f" end_link="3367294400014f" trav_time="00:07:36" distance="7891.656758726377" vehicleRefId="Dr0|1|0_car">58745520022f 255422010006f 1580430400029r 1580430400014r 1580430400003r 313499700005f 1580430250008f 8842057660003f 4813458290000f 1309058760000f 8842039240000f 537941390002f 386664560000f 1580430520000f 1580430460000f 7674746230000f 7674746240000f 5799012010000f 5799012030000f 4813458330001f 3719274550003f 4813458400004f 3296645090001f 107733990000f 1520456010013f 2752463260001f 2752463300002f 2752463280001f 2752463310006f 1538055840000f 1538055820003f 2752528150002f 107734340004f 3296691570011f 3296691600004f 107734350005f 1566149470001f 6834277870000f 1580463140000f 6834277860000f 1566149530000f 1580462820000f 3150369860001f 3150369860004f 6834277850003f 1309024290003f 1534072440000f 1534072480002f 6834277820001f 5079378000002f 5079378000003f 1307939990000f 7584942630000f 3192182320000f 2031429440000f 1538056550000f 1524518840000f 3192177940001f 1524518830000f 5799011960001f 1314692810000f 1537602340000f 1524528360002f 1524528360004f 3367294400014f</route>
			</leg>
			<activity type="service" link="3367294400014f" x="4379107.055877723" y="5929513.05476166" max_dur="00:04:00" >
				<attributes>
					<attribute name="customerType" class="java.lang.String">B2C</attribute>
					<attribute name="demand" class="java.lang.Integer">3</attribute>
				</attributes>
			</activity>
			<leg mode="car" dep_time="08:11:36" trav_time="00:02:43">
				<attributes>
					<attribute name="routingMode" class="java.lang.String">car</attribute>
				</attributes>
				<route type="links" start_link="3367294400014f" end_link="1309058700001f" trav_time="00:02:43" distance="1612.9029602957164" vehicleRefId="Dr0|1|0_car">3367294400014f 3367294400014r 1524528360004r 1524528360002r 1537602340000r 1314692810000r 5799011960001r 1524518830000r 2031429450002f 3192170080001f 6784099310003f 396737080004f 3192177930002f 2545578330005f 6784099390000f 402949040011f 5164629330003f 6784099430000r 5164629210000f 6909416890000f 6047520330001f 5168750650000f 3060462200001f 839028560000f 6944999050000f 1537602260005f 839028320016f 6300416660000r 1309058700001r 1309058700001f</route>
			</leg>
			<activity type="service" link="1309058700001f" x="4379424.178699195" y="5930087.160994674" max_dur="00:02:00" >
				<attributes>
					<attribute name="customerType" class="java.lang.String">B2C</attribute>
					<attribute name="demand" class="java.lang.Integer">1</attribute>
				</attributes>
			</activity>
			<leg mode="car" dep_time="08:16:19" trav_time="00:08:31">
				<attributes>
					<attribute name="routingMode" class="java.lang.String">car</attribute>
				</attributes>
				<route type="links" start_link="1309058700001f" end_link="58745520022f" trav_time="00:08:31" distance="9253.541941481564" vehicleRefId="Dr0|1|0_car">1309058700001f 6300416660000f 5799011930001f 839028350002f 1309058750005f 1309058750010f 6814005290002f 5164445450004f 5168750660001f 6909416970000f 5164629330003r 402949040011r 6784099390000r 1307940000002f 6784099380002f 1524501220004f 3129203440006f 6784099260001f 1524501230005f 1314692820000f 2530490400000f 1538056560000f 1534072470000f 2031429430000f 3192182350000f 5079380740000f 1307939950000f 5079378080003f 1534072420000f 6834277830000f 1534072430001f 1309024340003f 1309024340005f 6680759790000f 107734440003f 872556460001f 3296691610001f 2752528110000f 1538055740000f 1520455990001f 2752528200004f 2752463270001f 2752463320006f 2752463290002f 2752463250009f 107734010000f 1580430580004f 3296645070003f 6825336350009f 107733890014f 6663974720005f 458499220000f 6663974700002f 1309058740013f 313499700005r 521996190036r 6469658020003f 522771170001f 522771170006f 522771170018f 7460242480002f 7460242470000r 58745510008f 58745520022f</route>
			</leg>
			<activity type="cep" link="58745520022f" x="4374612.853565682" y="5930923.080233507" max_dur="00:00:00" >
			</activity>
		</plan>

	</person>

<!-- ====================================================================== -->

	<person id="Dr101|0">
		<attributes>
		</attributes>
		<plan score="-20.11844720371453" selected="yes">
			<activity type="md" link="1330393570015f" x="4361341.602874266" y="5938675.112349249" start_time="10:00:00" end_time="10:00:00" >
			</activity>
			<leg mode="bike" dep_time="10:00:00" trav_time="00:04:01">
				<attributes>
					<attribute name="routingMode" class="java.lang.String">bike</attribute>
				</attributes>
				<route type="links" start_link="1330393570015f" end_link="3728204780002f" trav_time="00:04:01" distance="2200.4729714629243" vehicleRefId="Dr101|0_bike">1330393570015f 6885738730028f 9117197760005f 9117197770005f 586995060000r 4463349480001r 6885650430003r 6885650480002r 317685260008r 317685260001r 8856114860007r 8856114900005f 4843859920011r 4843859920007r 8856114890001r 2229438950002f 2229438960002f 9240434070000f 1317248710001f 5718038310000f 80839530004f 52921100005f 2229438940001r 1266012670007r 1266012650000r 3728204780002r 3728204780002f</route>
			</leg>
			<activity type="service" link="3728204780002f" x="4360980.713470836" y="5938546.323539525" max_dur="00:02:00" >
				<attributes>
					<attribute name="customerType" class="java.lang.String">B2C</attribute>
					<attribute name="demand" class="java.lang.Integer">1</attribute>
				</attributes>
			</activity>
			<leg mode="bike" dep_time="10:06:01" trav_time="00:04:34">
				<attributes>
					<attribute name="routingMode" class="java.lang.String">bike</attribute>
				</attributes>
				<route type="links" start_link="3728204780002f" end_link="1330393570015f" trav_time="00:04:34" distance="2557.58301403444" vehicleRefId="Dr101|0_bike">3728204780002f 1266012650000f 1266012670007f 2229438940001f 9989924340006f 9989924330003f 7707366190014f 7089412130003f 9240434000000f 4843859960003f 9240434050002f 9240434040000f 7089412120008f 8856114890001f 4843859920007f 4843859920011f 8856114850003f 8856114870000f 8856114860007f 317685260001f 317685260008f 6885650480002f 6885650430003f 4463349480001f 586995060000f 9117197770005r 9117197760005r 6885738730028r 1330393570015r 1330393570015f</route>
			</leg>
			<activity type="md" link="1330393570015f" x="4361341.602874266" y="5938675.112349249" max_dur="00:00:00" >
			</activity>
		</plan>

	</person>

<!-- ====================================================================== -->

	<person id="Dr106|0">
		<attributes>
		</attributes>
		<plan score="-17.696745143064472" selected="yes">
			<activity type="md" link="39867400002f" x="4364068.518805934" y="5938960.124941313" start_time="10:00:00" end_time="10:00:00" >
			</activity>
			<leg mode="bike" dep_time="10:00:00" trav_time="00:00:39">
				<attributes>
					<attribute name="routingMode" class="java.lang.String">bike</attribute>
				</attributes>
				<route type="links" start_link="39867400002f" end_link="350842220018f" trav_time="00:00:39" distance="397.6762942124992" vehicleRefId="Dr106|0_bike">39867400002f 39867400002r 83047880001f 83047880002f 83047880003f 2669996290004r 2669996290002r 39867370002f 350842220018f</route>
			</leg>
			<activity type="service" link="350842220018f" x="4364275.990318125" y="5939068.100002661" max_dur="00:02:00" >
				<attributes>
					<attribute name="customerType" class="java.lang.String">B2C</attribute>
					<attribute name="demand" class="java.lang.Integer">1</attribute>
				</attributes>
			</activity>
			<leg mode="bike" dep_time="10:02:39" trav_time="00:00:47">
				<attributes>
					<attribute name="routingMode" class="java.lang.String">bike</attribute>
				</attributes>
				<route type="links" start_link="350842220018f" end_link="39867400002f" trav_time="00:00:47" distance="469.16821453322837" vehicleRefId="Dr106|0_bike">350842220018f 9169109140003f 1860140390001f 272600010000f 7462029180000f 2669996290001f 2669996290002f 2669996290004f 83047880003r 83047880002r 83047880001r 39867400002f</route>
			</leg>
			<activity type="md" link="39867400002f" x="4364068.518805934" y="5938960.124941313" max_dur="00:00:00" >
			</activity>
		</plan>

	</person>

<!-- ====================================================================== -->

	<person id="Dr119|0">
		<attributes>
		</attributes>
		<plan score="-17.68515127086864" selected="yes">
			<activity type="md" link="7338836640004f" x="4370304.73089822" y="5937467.912374139" start_time="10:00:00" end_time="10:00:00" >
			</activity>
			<leg mode="bike" dep_time="10:00:00" trav_time="00:00:28">
				<attributes>
					<attribute name="routingMode" class="java.lang.String">bike</attribute>
				</attributes>
				<route type="links" start_link="7338836640004f" end_link="2284767160001f" trav_time="00:00:28" distance="375.22342840934357" vehicleRefId="Dr119|0_bike">7338836640004f 7338836720003f 156769390000f 156769390001f 156769390002f 6537173530000f 1922243120003f 2397781560000f 2397781610000f 399677320000f 2284767160001f</route>
			</leg>
			<activity type="service" link="2284767160001f" x="4370248.310094354" y="5937769.974769454" max_dur="00:02:00" >
				<attributes>
					<attribute name="customerType" class="java.lang.String">B2C</attribute>
					<attribute name="demand" class="java.lang.Integer">1</attribute>
				</attributes>
			</activity>
			<leg mode="bike" dep_time="10:02:28" trav_time="00:01:10">
				<attributes>
					<attribute name="routingMode" class="java.lang.String">bike</attribute>
				</attributes>
				<route type="links" start_link="2284767160001f" end_link="7338836640004f" trav_time="00:01:10" distance="764.8833498282715" vehicleRefId="Dr119|0_bike">2284767160001f 2397908570001f 1922243120003f 396042460002f 6537173520001f 1097332210002f 353877650000f 744123630003f 1477569300005r 1477569300001r 7338836820013f 7338836640004f</route>
			</leg>
			<activity type="md" link="7338836640004f" x="4370304.73089822" y="5937467.912374139" max_dur="00:00:00" >
			</activity>
		</plan>

	</person>

<!-- ====================================================================== -->

	<person id="Dr137|0">
		<attributes>
		</attributes>
		<plan score="-18.532182706872675" selected="yes">
			<activity type="md" link="228153360028f" x="4364547.800266051" y="5927468.094061124" start_time="10:00:00" end_time="10:00:00" >
			</activity>
			<leg mode="bike" dep_time="10:00:00" trav_time="00:01:34">
				<attributes>
					<attribute name="routingMode" class="java.lang.String">bike</attribute>
				</attributes>
				<route type="links" start_link="228153360028f" end_link="9888553090004f" trav_time="00:01:34" distance="1268.156795398731" vehicleRefId="Dr137|0_bike">228153360028f 228153360028r 92363720004r 7879525910001r 7879525940000f 6312751570002f 25562030008r 25562030005r 25562030003r 9888553090010r 9888553090004r 9888553090004f</route>
			</leg>
			<activity type="service" link="9888553090004f" x="4364036.3064062195" y="5927665.314398111" max_dur="00:02:00" >
				<attributes>
					<attribute name="customerType" class="java.lang.String">B2C</attribute>
					<attribute name="demand" class="java.lang.Integer">1</attribute>
				</attributes>
			</activity>
			<leg mode="bike" dep_time="10:03:34" trav_time="00:00:47">
				<attributes>
					<attribute name="routingMode" class="java.lang.String">bike</attribute>
				</attributes>
				<route type="links" start_link="9888553090004f" end_link="228153360028f" trav_time="00:00:47" distance="810.1470445332425" vehicleRefId="Dr137|0_bike">9888553090004f 9888553090010f 25562030003f 25562030005f 25562030008f 6312751570002r 7879525940000r 7879525910001f 92363720004f 228153360028f</route>
			</leg>
			<activity type="md" link="228153360028f" x="4364547.800266051" y="5927468.094061124" max_dur="00:00:00" >
			</activity>
		</plan>

	</person>

<!-- ====================================================================== -->

	<person id="Dr13|0|0">
		<attributes>
		</attributes>
		<plan score="-718.3908114514824" selected="yes">
			<activity type="cep" link="310031850005f" x="4373988.055442002" y="5935380.9385522995" start_time="08:00:00" end_time="08:00:00" >
			</activity>
			<leg mode="car" dep_time="08:00:00" trav_time="00:01:08">
				<attributes>
					<attribute name="routingMode" class="java.lang.String">car</attribute>
				</attributes>
				<route type="links" start_link="310031850005f" end_link="2988442110005f" trav_time="00:01:08" distance="1001.9399069699404" vehicleRefId="Dr13|0|0_car">310031850005f 7558998930002f 7558998860000f 313155240004f 7558999040000f 223817400002f 7558999030000f 1517770310000f 7387323720001f 2668903430000f 2668903430001f 7558999250001f 223817420000f 7558999240000f 223817430001f 616507090000f 2988442180002f 5070555480000f 6090398880002f 316926040006f 6090399920000r 2988442110005r 2988442110005f</route>
			</leg>
			<activity type="service" link="2988442110005f" x="4374387.6720901765" y="5935878.629161807" max_dur="00:03:00" >
				<attributes>
					<attribute name="customerType" class="java.lang.String">B2B</attribute>
					<attribute name="demand" class="java.lang.Integer">2</attribute>
				</attributes>
			</activity>
			<leg mode="car" dep_time="08:04:08" trav_time="00:00:58">
				<attributes>
					<attribute name="routingMode" class="java.lang.String">car</attribute>
				</attributes>
				<route type="links" start_link="2988442110005f" end_link="5678094360000f" trav_time="00:00:58" distance="763.0511712686147" vehicleRefId="Dr13|0|0_car">2988442110005f 6090399920000f 223817440001f 223817440002f 6090399910000f 5007578480000f 8861706770000f 6090399900001f 616507140002f 8843152160002f 8843152150000f 8843152150002f 8843152210000f 8843152210003f 6469642630001f 8843152280001f 5678094380003f 5678094240004f 5678094370000f 5678094360000f</route>
			</leg>
			<activity type="service" link="5678094360000f" x="4374583.267472714" y="5936189.353676055" max_dur="00:03:00" >
				<attributes>
					<attribute name="customerType" class="java.lang.String">B2B</attribute>
					<attribute name="demand" class="java.lang.Integer">2</attribute>
				</attributes>
			</activity>
			<leg mode="car" dep_time="08:08:06" trav_time="00:06:42">
				<attributes>
					<attribute name="routingMode" class="java.lang.String">car</attribute>
				</attributes>
				<route type="links" start_link="5678094360000f" end_link="1857756880001f" trav_time="00:06:42" distance="5093.393754442544" vehicleRefId="Dr13|0|0_car">5678094360000f 5678094270000f 310033500002f 5678094290001f 5678094300001f 5678094310002f 8843152300002f 5678094250003f 8843152320001f 223817480000f 8843152290000f 2988442320002f 2988442320004f 2988442320010f 2988442320012f 9066525590003f 9066525550000f 9066525500000f 9066525490002f 1517044620005r 1517044620004r 1517044620003r 1517044620002r 2800825730009r 2800825750004r 8125742060001r 8125742080001r 1515415350003r 304483290011r 2418741320008f 2418741320010f 37855890005f 3156810630002r 3156810610006f 304418090001f 5007417320005f 1783095720016r 1783095720015r 1783095720014r 1783095720006r 1285681580000f 1807394140000f 228165220000f 1478651170011f 7009491830000f 7009491880003f 1478651240004f 7009491840000f 1478651200009f 1477759190013f 1477759110002f 1477759110006f 1477758880000f 1477759130001f 1477759130003f 369718360001f 429886550002f 1477759200000f 350329240000f 301538290000f 7631374990000f 7631375090000f 7631375040002f 1857756880001r 1857756880001f</route>
			</leg>
			<activity type="service" link="1857756880001f" x="4372151.697261127" y="5939630.488133401" max_dur="00:03:00" >
				<attributes>
					<attribute name="customerType" class="java.lang.String">B2B</attribute>
					<attribute name="demand" class="java.lang.Integer">2</attribute>
				</attributes>
			</activity>
			<leg mode="car" dep_time="08:17:48" trav_time="00:01:56">
				<attributes>
					<attribute name="routingMode" class="java.lang.String">car</attribute>
				</attributes>
				<route type="links" start_link="1857756880001f" end_link="1733470950003f" trav_time="00:01:56" distance="1512.776566805867" vehicleRefId="Dr13|0|0_car">1857756880001f 7631375020000f 7631375080001f 7631375050000f 100748580001f 3723605510000f 350329200000f 1477759200000f 1477758910002f 52067820000f 519447580003f 6797353060004f 6797353050001f 234230000001f 5191100540002f 234229990000f 234229990001f 234229990006f 1966071550000f 9231038540007f 9231038510004f 227689280000f 9179964990004f 9179964980000f 9179965040006f 9179965040011f 9179964890000f 9179964910000f 1478505460005f 4599018490004f 1733470950003f</route>
			</leg>
			<activity type="service" link="1733470950003f" x="4371855.347488267" y="5940657.16127124" max_dur="00:03:00" >
				<attributes>
					<attribute name="customerType" class="java.lang.String">B2B</attribute>
					<attribute name="demand" class="java.lang.Integer">2</attribute>
				</attributes>
			</activity>
			<leg mode="car" dep_time="08:22:45" trav_time="00:00:43">
				<attributes>
					<attribute name="routingMode" class="java.lang.String">car</attribute>
				</attributes>
				<route type="links" start_link="1733470950003f" end_link="7593557820001f" trav_time="00:00:43" distance="410.4818644413335" vehicleRefId="Dr13|0|0_car">1733470950003f 401630220002f 9838793200002f 1733470960001f 1733470960003f 9794013480001f 431184190007f 1478505210004f 7593557820000f 7593557820001f</route>
			</leg>
			<activity type="service" link="7593557820001f" x="4371802.936449697" y="5940405.229030678" max_dur="00:03:00" >
				<attributes>
					<attribute name="customerType" class="java.lang.String">B2B</attribute>
					<attribute name="demand" class="java.lang.Integer">2</attribute>
				</attributes>
			</activity>
			<leg mode="car" dep_time="08:26:28" trav_time="00:03:05">
				<attributes>
					<attribute name="routingMode" class="java.lang.String">car</attribute>
				</attributes>
				<route type="links" start_link="7593557820001f" end_link="1371315140000f" trav_time="00:03:05" distance="1859.0994061614697" vehicleRefId="Dr13|0|0_car">7593557820001f 7593557820001r 7593557820000r 7593557810003f 233871180001f 233871180005f 42558550016f 431274980000r 227450040004f 2492366100006r 2492366100005r 2492290440003r 373864480009r 8259472700004r 348882000009r 348882000006r 1126611090000r 1855036170004r 316540330002r 348882010003r 6056932120000f 1371315120003f 1854069280000f 682873710000f 1885650710002f 682873700001f 254780110000f 682873630000f 682873690001f 1371315140000f</route>
			</leg>
			<activity type="service" link="1371315140000f" x="4370382.024136681" y="5940457.213161063" max_dur="00:03:00" >
				<attributes>
					<attribute name="customerType" class="java.lang.String">B2B</attribute>
					<attribute name="demand" class="java.lang.Integer">2</attribute>
				</attributes>
			</activity>
			<leg mode="car" dep_time="08:32:34" trav_time="00:01:27">
				<attributes>
					<attribute name="routingMode" class="java.lang.String">car</attribute>
				</attributes>
				<route type="links" start_link="1371315140000f" end_link="1472334240002f" trav_time="00:01:27" distance="1187.1781286199266" vehicleRefId="Dr13|0|0_car">1371315140000f 6056932130000f 6056932120000f 1371315120003f 1854069280000f 682873560000f 1371315110002f 1371315110004f 6056932160000f 6056932160001f 3848800750001f 3848800760002f 3848800760004f 368215340003f 355865530006f 43516230000f 368215280001f 230709260000f 43515960000f 6501289720002f 6501289690002f 9416958960001f 43516920007f 34533830002f 5663286600000f 5663286600003f 5663286590003f 1819117350000f 1819117390003f 1472334240002f</route>
			</leg>
			<activity type="service" link="1472334240002f" x="4370932.436807335" y="5941326.6432427745" max_dur="00:03:00" >
				<attributes>
					<attribute name="customerType" class="java.lang.String">B2B</attribute>
					<attribute name="demand" class="java.lang.Integer">2</attribute>
				</attributes>
			</activity>
			<leg mode="car" dep_time="08:37:01" trav_time="00:00:51">
				<attributes>
					<attribute name="routingMode" class="java.lang.String">car</attribute>
				</attributes>
				<route type="links" start_link="1472334240002f" end_link="1885650780005f" trav_time="00:00:51" distance="763.6116718301229" vehicleRefId="Dr13|0|0_car">1472334240002f 9848785430002r 9848785420002r 7588946770011r 7588946770010r 1472334200002r 401414980002r 1885650780009r 1885650780005r 1885650780005f</route>
			</leg>
			<activity type="service" link="1885650780005f" x="4370836.385318754" y="5941786.36868987" max_dur="00:03:00" >
				<attributes>
					<attribute name="customerType" class="java.lang.String">B2B</attribute>
					<attribute name="demand" class="java.lang.Integer">2</attribute>
				</attributes>
			</activity>
			<leg mode="car" dep_time="08:40:52" trav_time="00:07:29">
				<attributes>
					<attribute name="routingMode" class="java.lang.String">car</attribute>
				</attributes>
				<route type="links" start_link="1885650780005f" end_link="7766882440003f" trav_time="00:07:29" distance="5632.07977476245" vehicleRefId="Dr13|0|0_car">1885650780005f 1885650780009f 401414980002f 49934160005f 8975661500000f 3845310650004f 532973340002f 6807180980006f 6807180380000f 6807181180003f 6807180720000f 6807180900000f 6807180860003f 6807181150001f 7010566090000f 7010566100003f 230706010002f 9561658740003f 9561658670003f 222826010009f 1877372530007f 9031171180002r 8408032650009r 9031171170006r 308933670023r 308933690029r 308933690014r 9409240430002r 386639890028r 386639890004r 1518361380001r 6083613070002f 6083613080009f 6083613170001f 557445530024f 560709510013f 400121490003f 6081583600000f 401522680001f 6081583540000r 6081583580000r 6081583470001f 6081583490000f 7611042690002f 401522960003r 7766882440003r 7766882440003f</route>
			</leg>
			<activity type="service" link="7766882440003f" x="4375432.148190353" y="5943530.780414441" max_dur="00:03:00" >
				<attributes>
					<attribute name="customerType" class="java.lang.String">B2B</attribute>
					<attribute name="demand" class="java.lang.Integer">2</attribute>
				</attributes>
			</activity>
			<leg mode="car" dep_time="08:51:22" trav_time="00:02:39">
				<attributes>
					<attribute name="routingMode" class="java.lang.String">car</attribute>
				</attributes>
				<route type="links" start_link="7766882440003f" end_link="100753880004f" trav_time="00:02:39" distance="2015.2387563314946" vehicleRefId="Dr13|0|0_car">7766882440003f 401522960003f 6081583530000f 7611042680000f 7611042660002f 6081583520001f 6081583510001f 227443410009f 52126450000f 6061335940000f 6061335960000f 6061335980000f 6061335930000f 400145070001f 6061335920001f 6061335910001f 6061335890004f 105605140005f 105605140012f 6061116110002r 560709550009r 560709550005r 100753890006r 100753890002r 6061116120001r 100753880004r 100753880004f</route>
			</leg>
			<activity type="service" link="100753880004f" x="4374445.900744682" y="5942349.4048688095" max_dur="00:03:00" >
				<attributes>
					<attribute name="customerType" class="java.lang.String">B2B</attribute>
					<attribute name="demand" class="java.lang.Integer">2</attribute>
				</attributes>
			</activity>
			<leg mode="car" dep_time="08:57:01" trav_time="00:02:29">
				<attributes>
					<attribute name="routingMode" class="java.lang.String">car</attribute>
				</attributes>
				<route type="links" start_link="100753880004f" end_link="6919995260001f" trav_time="00:02:29" distance="1889.2255184367816" vehicleRefId="Dr13|0|0_car">100753880004f 100753880004r 100753880002r 6020011440000r 42638900002r 42638900001r 42638900000r 6061335880002r 6061335870002r 400143720011r 400143720009r 83281190014r 85607000004f 85607000005f 6061335860003f 401519580002f 6919995260001f</route>
			</leg>
			<activity type="service" link="6919995260001f" x="4372689.588439799" y="5941824.544453097" max_dur="00:03:00" >
				<attributes>
					<attribute name="customerType" class="java.lang.String">B2B</attribute>
					<attribute name="demand" class="java.lang.Integer">2</attribute>
				</attributes>
			</activity>
			<leg mode="car" dep_time="09:02:31" trav_time="00:00:40">
				<attributes>
					<attribute name="routingMode" class="java.lang.String">car</attribute>
				</attributes>
				<route type="links" start_link="6919995260001f" end_link="105804130002f" trav_time="00:00:40" distance="505.05848954346527" vehicleRefId="Dr13|0|0_car">6919995260001f 6919995260001r 401519580002r 6639837810000f 227340210004f 83281560003f 83281560014f 6061411230000f 6061411440000r 105804130002r 105804130002f</route>
			</leg>
			<activity type="service" link="105804130002f" x="4372674.105155663" y="5941470.0067834705" max_dur="00:03:00" >
				<attributes>
					<attribute name="customerType" class="java.lang.String">B2B</attribute>
					<attribute name="demand" class="java.lang.Integer">2</attribute>
				</attributes>
			</activity>
			<leg mode="car" dep_time="09:06:11" trav_time="00:01:46">
				<attributes>
					<attribute name="routingMode" class="java.lang.String">car</attribute>
				</attributes>
				<route type="links" start_link="105804130002f" end_link="3642603920002f" trav_time="00:01:46" distance="1352.91345502715" vehicleRefId="Dr13|0|0_car">105804130002f 6061411440000f 6061411370005f 61834570004f 6464748130002r 100686320014r 100686320013r 100686320010r 100686320009r 100686320000r 1778994770000r 6464748140003r 227441040004r 227441040000r 3290188210001r 3290188220009r 3290188220007r 3290188220003r 3642603920002r 3642603920002f</route>